testData/tamu2000/tamu_2000_PSLF_v33_ac2loads.raw
0 ,  100.000,   33, 0,1, 60.00
THIS IS A SYNTHETIC POWER SYSTEM MODEL THAT DOES NOT REPRESE
DATA RESEARCH PROJECT AND CONTAINS NO CEII.                 
  1001,'ODESSA 2    ',115.0000,1,   1,   9,   1,0.981490,-23.530010,1.100000,0.900000,1.100000,0.900000
  1002,'PRESIDIO    ',115.0000,1,   1,   9,   1,1.018970,-18.979807,1.100000,0.900000,1.100000,0.900000
  1003,'O DONNEL    ',115.0000,1,   1,   9,   1,1.012580,-18.033108,1.100000,0.900000,1.100000,0.900000
  1004,'O DONNEL    ',230.0000,2,   1,   9,   1,1.017470,-19.870008,1.100000,0.900000,1.100000,0.900000
  1005,'BIG SPRI    ',115.0000,1,   1,   9,   1,1.008090,-16.979609,1.100000,0.900000,1.100000,0.900000
  1006,'BIG SPRI    ', 13.8000,1,   1,   9,   1,0.998400,-14.800406,1.100000,0.900000,1.100000,0.900000
  1007,'VAN HORN    ',115.0000,1,   1,   9,   1,1.026030,-19.353708,1.100000,0.900000,1.100000,0.900000
  1008,'IRAAN 2     ',115.0000,1,   1,   9,   1,1.020790,-9.543604,1.100000,0.900000,1.100000,0.900000
  1009,'IRAAN 2     ', 13.8000,2,   1,   9,   1,1.010760,-6.257802,1.100000,0.900000,1.100000,0.900000
  1010,'PRESIDIO    ',115.0000,1,   1,   9,   1,1.026370,-17.703407,1.100000,0.900000,1.100000,0.900000
  1011,'PRESIDIO    ', 22.0000,1,   1,   9,   1,1.026580,-15.942906,1.100000,0.900000,1.100000,0.900000
  1012,'SANDERSO    ',115.0000,1,   1,   9,   1,1.011830,-26.233810,1.100000,0.900000,1.100000,0.900000
  1013,'MONAHANS    ',115.0000,1,   1,   9,   1,1.006920,-16.293808,1.100000,0.900000,1.100000,0.900000
  1014,'GRANDFAL    ',115.0000,1,   1,   9,   1,1.013320,-12.789704,1.100000,0.900000,1.100000,0.900000
  1015,'MARFA 0     ',115.0000,1,   1,   9,   1,1.028000,-19.106108,1.100000,0.900000,1.100000,0.900000
  1016,'GARDEN C    ',115.0000,1,   1,   9,   1,1.017650,-16.360706,1.100000,0.900000,1.100000,0.900000
  1017,'ODESSA 4    ',115.0000,1,   1,   9,   1,0.982960,-22.244909,1.100000,0.900000,1.100000,0.900000
  1018,'NOTREES     ',115.0000,1,   1,   9,   1,0.990230,-20.999607,1.100000,0.900000,1.100000,0.900000
  1019,'MIDLAND     ',115.0000,1,   1,   9,   1,1.001550,-23.121010,1.100000,0.900000,1.100000,0.900000
  1020,'BIG SPRI    ',115.0000,1,   1,   9,   1,1.024270,-16.143808,1.100000,0.900000,1.100000,0.900000
  1021,'BIG SPRI    ', 13.8000,2,   1,   9,   1,1.000000,-9.538104,1.100000,0.900000,1.100000,0.900000
  1022,'O DONNEL    ',115.0000,1,   1,   9,   1,1.015410,-17.155607,1.100000,0.900000,1.100000,0.900000
  1023,'O DONNEL    ', 13.8000,2,   1,   9,   1,1.010000,-8.269903,1.100000,0.900000,1.100000,0.900000
  1024,'ODESSA 6    ',115.0000,1,   1,   9,   1,0.991800,-19.975109,1.100000,0.900000,1.100000,0.900000
  1025,'BIG SPRI    ',115.0000,1,   1,   9,   1,1.019590,-15.083306,1.100000,0.900000,1.100000,0.900000
  1026,'BIG SPRI    ', 13.8000,2,   1,   9,   1,1.000000,-5.581102,1.100000,0.900000,1.100000,0.900000
  1027,'MIDLAND     ',115.0000,1,   1,   9,   1,1.011030,-26.651209,1.100000,0.900000,1.100000,0.900000
  1028,'COAHOMA     ',115.0000,1,   1,   9,   1,1.018830,-18.670107,1.100000,0.900000,1.100000,0.900000
  1029,'MIDLAND     ',115.0000,1,   1,   9,   1,1.007170,-25.705210,1.100000,0.900000,1.100000,0.900000
  1030,'ALPINE 0    ',115.0000,1,   1,   9,   1,1.014570,-14.312706,1.100000,0.900000,1.100000,0.900000
  1031,'FORT DAV    ',115.0000,1,   1,   9,   1,1.015710,-18.541208,1.100000,0.900000,1.100000,0.900000
  1032,'MCCAMEY     ',115.0000,1,   1,   9,   1,0.999590,-13.121606,1.100000,0.900000,1.100000,0.900000
  1033,'MCCAMEY     ',230.0000,2,   1,   9,   1,1.012550,-17.723507,1.100000,0.900000,1.100000,0.900000
  1034,'BIG SPRI    ',115.0000,1,   1,   9,   1,1.005440,-15.206707,1.100000,0.900000,1.100000,0.900000
  1035,'BIG SPRI    ', 13.8000,2,   1,   9,   1,1.000000,-11.917105,1.100000,0.900000,1.100000,0.900000
  1036,'CRANE 0     ',115.0000,1,   1,   9,   1,0.997000,-13.376905,1.100000,0.900000,1.100000,0.900000
  1037,'ODESSA 5    ',115.0000,1,   1,   9,   1,0.975960,-23.350309,1.100000,0.900000,1.100000,0.900000
  1038,'FORT STO    ',115.0000,1,   1,   9,   1,1.017080,-8.546204,1.100000,0.900000,1.100000,0.900000
  1039,'FORT STO    ', 22.0000,2,   1,   9,   1,1.000000,-3.164701,1.100000,0.900000,1.100000,0.900000
  1040,'ANDREWS     ',115.0000,1,   1,   9,   1,0.992000,-21.259010,1.100000,0.900000,1.100000,0.900000
  1041,'FORSAN 0    ',115.0000,1,   1,   9,   1,1.003630,-16.006508,1.100000,0.900000,1.100000,0.900000
  1042,'FORSAN 1    ', 13.8000,2,   1,   9,   1,1.003630,-16.006508,1.100000,0.900000,1.100000,0.900000
  1043,'FORSAN 2    ', 13.8000,2,   1,   9,   1,1.000000,-12.766705,1.100000,0.900000,1.100000,0.900000
  1044,'BIG LAKE    ',115.0000,1,   1,   9,   1,1.012920,-26.819212,1.100000,0.900000,1.100000,0.900000
  1045,'MIDLAND     ',115.0000,1,   1,   9,   1,0.979860,-25.241310,1.100000,0.900000,1.100000,0.900000
  1046,'OZONA 0     ',115.0000,1,   1,   9,   1,1.025780,-23.396109,1.100000,0.900000,1.100000,0.900000
  1047,'MONAHANS    ',115.0000,1,   1,   9,   1,1.006490,-14.212206,1.100000,0.900000,1.100000,0.900000
  1048,'MONAHANS    ', 18.0000,2,   1,   9,   1,1.006490,-14.212206,1.100000,0.900000,1.100000,0.900000
  1049,'MONAHANS    ', 18.0000,2,   1,   9,   1,1.006490,-14.212206,1.100000,0.900000,1.100000,0.900000
  1050,'MONAHANS    ', 18.0000,2,   1,   9,   1,1.000000,-9.151003,1.100000,0.900000,1.100000,0.900000
  1051,'MONAHANS    ', 18.0000,2,   1,   9,   1,1.000000,-7.674603,1.100000,0.900000,1.100000,0.900000
  1052,'MONAHANS    ', 18.0000,2,   1,   9,   1,1.000000,-9.998604,1.100000,0.900000,1.100000,0.900000
  1053,'MONAHANS    ',230.0000,2,   1,   9,   1,1.024250,-18.210005,1.100000,0.900000,1.100000,0.900000
  1054,'STANTON     ',115.0000,1,   1,   9,   1,1.010480,-23.203110,1.100000,0.900000,1.100000,0.900000
  1055,'ODONNELL    ',115.0000,1,   1,   9,   1,1.005010,-19.067408,1.100000,0.900000,1.100000,0.900000
  1056,'LENORAH     ',115.0000,1,   1,   9,   1,1.027840,-22.735010,1.100000,0.900000,1.100000,0.900000
  1057,'LENORAH     ', 18.0000,2,   1,   9,   1,1.027840,-22.735010,1.100000,0.900000,1.100000,0.900000
  1058,'IRAAN 3     ',115.0000,1,   1,   9,   1,1.023560,-12.194005,1.100000,0.900000,1.100000,0.900000
  1059,'IRAAN 3     ', 22.0000,2,   1,   9,   1,1.023560,-12.194005,1.100000,0.900000,1.100000,0.900000
  1060,'IRAAN 3     ', 22.0000,2,   1,   9,   1,1.023560,-12.194005,1.100000,0.900000,1.100000,0.900000
  1061,'BIG SPRI    ',115.0000,1,   1,   9,   1,1.009990,-18.127308,1.100000,0.900000,1.100000,0.900000
  1062,'BIG SPRI    ', 13.8000,2,   1,   9,   1,1.009990,-18.127308,1.100000,0.900000,1.100000,0.900000
  1063,'BIG SPRI    ', 13.8000,2,   1,   9,   1,1.009990,-18.127308,1.100000,0.900000,1.100000,0.900000
  1064,'ODESSA 3    ',115.0000,1,   1,   9,   1,0.974050,-24.943010,1.100000,0.900000,1.100000,0.900000
  1065,'BIG SPRI    ',115.0000,1,   1,   9,   1,1.006610,-15.841207,1.100000,0.900000,1.100000,0.900000
  1066,'BIG SPRI    ', 13.8000,2,   1,   9,   1,1.000000,-8.319703,1.100000,0.900000,1.100000,0.900000
  1067,'BIG SPRI    ',115.0000,1,   1,   9,   1,1.000310,-16.574408,1.100000,0.900000,1.100000,0.900000
  1068,'MIDLAND     ',115.0000,1,   1,   9,   1,0.986390,-17.300507,1.100000,0.900000,1.100000,0.900000
  1069,'IRAAN 1     ',115.0000,1,   1,   9,   1,1.024910,-9.692204,1.100000,0.900000,1.100000,0.900000
  1070,'IRAAN 1     ', 13.8000,2,   1,   9,   1,1.040000,-5.193202,1.100000,0.900000,1.100000,0.900000
  1071,'ODESSA 1    ',115.0000,1,   1,   9,   1,0.989130,-22.274509,1.100000,0.900000,1.100000,0.900000
  1072,'ODESSA 1    ', 18.0000,2,   1,   9,   1,1.010000,-12.922905,1.100000,0.900000,1.100000,0.900000
  1073,'ODESSA 1    ', 18.0000,2,   1,   9,   1,1.010000,-6.512302,1.100000,0.900000,1.100000,0.900000
  1074,'ODESSA 1    ', 18.0000,2,   1,   9,   1,1.010000,-8.562303,1.100000,0.900000,1.100000,0.900000
  1075,'ODESSA 1    ', 18.0000,2,   1,   9,   1,1.010000,-11.324904,1.100000,0.900000,1.100000,0.900000
  1076,'ODESSA 1    ', 18.0000,2,   1,   9,   1,0.989130,-22.274509,1.100000,0.900000,1.100000,0.900000
  1077,'ODESSA 1    ', 18.0000,2,   1,   9,   1,0.989130,-22.274509,1.100000,0.900000,1.100000,0.900000
  1078,'ODESSA 1    ', 18.0000,2,   1,   9,   1,1.010000,-11.844105,1.100000,0.900000,1.100000,0.900000
  1079,'ODESSA 1    ',500.0000,2,   1,   9,   1,1.018800,-39.245514,1.100000,0.900000,1.100000,0.900000
  1080,'ODESSA 1    ', 18.0000,2,   1,   9,   1,1.010000,-11.265504,1.100000,0.900000,1.100000,0.900000
  1081,'ODESSA 1    ',230.0000,2,   1,   9,   1,1.028750,-19.567007,1.100000,0.900000,1.100000,0.900000
  1082,'FORT STO    ',115.0000,2,   1,   9,   1,1.020550,-6.835902,1.100000,0.900000,1.100000,0.900000
  1083,'FORT STO    ',115.0000,1,   1,   9,   1,1.019530,-10.780804,1.100000,0.900000,1.100000,0.900000
  1084,'BIG SPRI    ',115.0000,2,   1,   9,   1,1.026330,-17.358208,1.100000,0.900000,1.100000,0.900000
  1085,'KERMIT 0    ',115.0000,1,   1,   9,   1,1.008700,-16.167608,1.100000,0.900000,1.100000,0.900000
  1086,'PECOS 0     ',115.0000,1,   1,   9,   1,1.015530,-18.415009,1.100000,0.900000,1.100000,0.900000
  1087,'SHEFFIEL    ',115.0000,1,   1,   9,   1,1.028200,-17.102306,1.100000,0.900000,1.100000,0.900000
  1088,'MCCAMEY     ',115.0000,2,   1,   9,   1,1.000000,-12.738405,1.100000,0.900000,1.100000,0.900000
  1089,'LAMESA 0    ',115.0000,1,   1,   9,   1,0.985180,-22.214609,1.100000,0.900000,1.100000,0.900000
  1090,'GOLDSMIT    ',115.0000,2,   1,   9,   1,1.016100,-16.895206,1.100000,0.900000,1.100000,0.900000
  1091,'RALLS 2     ',161.0000,1,   1,   9,   1,1.033470,-31.917511,1.100000,0.900000,1.100000,0.900000
  2001,'PARIS 3     ',161.0000,1,   2,  11,   1,1.000930,-61.127625,1.100000,0.900000,1.100000,0.900000
  2002,'SAVOY 0     ',500.0000,1,   2,  11,   1,1.010730,-62.699627,1.100000,0.900000,1.100000,0.900000
  2003,'SAVOY 1     ',161.0000,1,   2,  11,   1,1.008950,-64.941734,1.100000,0.900000,1.100000,0.900000
  2004,'SAVOY 2     ', 13.8000,2,   2,  11,   1,1.010730,-62.699627,1.100000,0.900000,1.100000,0.900000
  2005,'SAVOY 3     ', 13.8000,2,   2,  11,   1,1.010730,-62.699627,1.100000,0.900000,1.100000,0.900000
  2006,'SAVOY 4     ', 13.8000,2,   2,  11,   1,1.010730,-62.699627,1.100000,0.900000,1.100000,0.900000
  2007,'HONEY GR    ',161.0000,1,   2,  11,   1,1.001580,-60.708023,1.100000,0.900000,1.100000,0.900000
  2008,'MEMPHIS     ',161.0000,1,   2,  10,   1,1.019270,-33.693314,1.100000,0.900000,1.100000,0.900000
  2009,'IOWA PAR    ',161.0000,1,   2,  11,   1,1.022650,-46.089718,1.100000,0.900000,1.100000,0.900000
  2010,'VERNON 2    ',161.0000,1,   2,  10,   1,1.031000,-37.284615,1.100000,0.900000,1.100000,0.900000
  2011,'PANHANDL    ',500.0000,1,   2,  10,   1,1.039120,-32.973217,1.100000,0.900000,1.100000,0.900000
  2012,'PANHANDL    ',161.0000,1,   2,  10,   1,1.028010,-30.740511,1.100000,0.900000,1.100000,0.900000
  2013,'PANHANDL    ', 18.0000,2,   2,  10,   1,1.030760,-30.634411,1.100000,0.900000,1.100000,0.900000
  2014,'CHILDRES    ',161.0000,1,   2,  10,   1,1.019080,-34.266716,1.100000,0.900000,1.100000,0.900000
  2015,'FORESTBU    ',161.0000,1,   2,  11,   1,1.009270,-64.352829,1.100000,0.900000,1.100000,0.900000
  2016,'SHERMAN     ',161.0000,1,   2,  11,   1,1.007290,-71.038628,1.100000,0.900000,1.100000,0.900000
  2017,'PANHANDL    ',500.0000,1,   2,  10,   1,1.030910,-33.125015,1.100000,0.900000,1.100000,0.900000
  2018,'PANHANDL    ',161.0000,1,   2,  10,   1,1.028460,-32.337612,1.100000,0.900000,1.100000,0.900000
  2019,'PANHANDL    ', 20.0000,2,   2,  10,   1,1.030910,-33.125015,1.100000,0.900000,1.100000,0.900000
  2020,'WICHITA     ',161.0000,1,   2,  11,   1,0.995970,-45.749516,1.100000,0.900000,1.100000,0.900000
  2021,'PARIS 2     ',500.0000,1,   2,  11,   1,1.013650,-57.900925,1.100000,0.900000,1.100000,0.900000
  2022,'PARIS 2     ',161.0000,1,   2,  11,   1,1.009420,-59.799122,1.100000,0.900000,1.100000,0.900000
  2023,'PARIS 2     ', 13.8000,2,   2,  11,   1,1.020000,-56.337921,1.100000,0.900000,1.100000,0.900000
  2024,'PARIS 2     ', 13.8000,2,   2,  11,   1,1.020000,-55.672321,1.100000,0.900000,1.100000,0.900000
  2025,'WICHITA     ',161.0000,1,   2,  11,   1,0.994680,-44.980721,1.100000,0.900000,1.100000,0.900000
  2026,'WHEELER     ',161.0000,1,   2,  10,   1,1.026770,-31.951412,1.100000,0.900000,1.100000,0.900000
  2027,'DEPORT 0    ',161.0000,1,   2,  11,   1,1.001330,-61.541927,1.100000,0.900000,1.100000,0.900000
  2028,'WICHITA     ',161.0000,1,   2,  11,   1,0.995840,-48.135319,1.100000,0.900000,1.100000,0.900000
  2029,'SILVERTO    ',161.0000,1,   2,  10,   1,1.025930,-33.649712,1.100000,0.900000,1.100000,0.900000
  2030,'BONHAM 0    ',161.0000,1,   2,  11,   1,0.987220,-65.024620,1.100000,0.900000,1.100000,0.900000
  2031,'MATADOR     ',161.0000,1,   2,  10,   1,1.030680,-30.555912,1.100000,0.900000,1.100000,0.900000
  2032,'ARTHUR C    ',161.0000,1,   2,  11,   1,1.003660,-60.099728,1.100000,0.900000,1.100000,0.900000
  2033,'LEONARD     ',161.0000,1,   2,  11,   1,0.989820,-66.593719,1.100000,0.900000,1.100000,0.900000
  2034,'GORDONVI    ',161.0000,1,   2,  11,   1,1.005190,-70.374527,1.100000,0.900000,1.100000,0.900000
  2035,'KNOX CIT    ',161.0000,1,   2,  10,   1,1.026250,-31.477114,1.100000,0.900000,1.100000,0.900000
  2036,'WICHITA     ',161.0000,1,   2,  11,   1,0.999950,-45.343819,1.100000,0.900000,1.100000,0.900000
  2037,'LINDSAY     ',161.0000,1,   2,  11,   1,1.020580,-64.704224,1.100000,0.900000,1.100000,0.900000
  2038,'ECTOR 0     ',161.0000,1,   2,  11,   1,1.005820,-65.397926,1.100000,0.900000,1.100000,0.900000
  2039,'SUNSET 0    ',161.0000,1,   2,  11,   1,0.992930,-61.695423,1.100000,0.900000,1.100000,0.900000
  2040,'CLARKSVI    ',161.0000,1,   2,  11,   1,1.006600,-60.376125,1.100000,0.900000,1.100000,0.900000
  2041,'PANHANDL    ',161.0000,1,   2,  10,   1,1.028860,-28.560911,1.100000,0.900000,1.100000,0.900000
  2042,'PANHANDL    ', 18.0000,2,   2,  10,   1,1.020280,-25.989809,1.100000,0.900000,1.100000,0.900000
  2043,'SADLER 0    ',161.0000,1,   2,  11,   1,1.005900,-70.678024,1.100000,0.900000,1.100000,0.900000
  2044,'WHITESBO    ',161.0000,1,   2,  11,   1,1.015130,-66.476532,1.100000,0.900000,1.100000,0.900000
  2045,'SHEPPARD    ',161.0000,1,   2,  11,   1,0.995330,-46.292419,1.100000,0.900000,1.100000,0.900000
  2046,'POTTSBOR    ',161.0000,1,   2,  11,   1,1.004820,-69.991531,1.100000,0.900000,1.100000,0.900000
  2047,'BELLS 0     ',161.0000,1,   2,  11,   1,1.007560,-65.840630,1.100000,0.900000,1.100000,0.900000
  2048,'CROSBYTO    ',161.0000,1,   2,  10,   1,1.033420,-32.611115,1.100000,0.900000,1.100000,0.900000
  2049,'ELECTRA     ',161.0000,1,   2,  10,   1,1.020500,-41.797215,1.100000,0.900000,1.100000,0.900000
  2050,'PATTONVI    ',161.0000,1,   2,  11,   1,0.993090,-64.320526,1.100000,0.900000,1.100000,0.900000
  2051,'HENRIETT    ',161.0000,1,   2,  11,   1,0.991150,-55.101723,1.100000,0.900000,1.100000,0.900000
  2052,'PANHANDL    ',161.0000,1,   2,  10,   1,1.019420,-32.827213,1.100000,0.900000,1.100000,0.900000
  2053,'BOWIE 0     ',161.0000,1,   2,  11,   1,0.991660,-60.381924,1.100000,0.900000,1.100000,0.900000
  2054,'WICHITA     ',500.0000,1,   2,  11,   1,0.998420,-43.989014,1.100000,0.900000,1.100000,0.900000
  2055,'WICHITA     ',161.0000,1,   2,  11,   1,0.998060,-44.819618,1.100000,0.900000,1.100000,0.900000
  2056,'WICHITA     ', 18.0000,2,   2,  11,   1,0.998420,-43.989014,1.100000,0.900000,1.100000,0.900000
  2057,'WICHITA     ', 18.0000,2,   2,  11,   1,0.990000,-39.585217,1.100000,0.900000,1.100000,0.900000
  2058,'WHITE DE    ',161.0000,1,   2,  10,   1,1.029110,-28.133211,1.100000,0.900000,1.100000,0.900000
  2059,'WHITE DE    ', 13.8000,2,   2,  10,   1,1.019120,-24.791809,1.100000,0.900000,1.100000,0.900000
  2060,'ROXTON 0    ',161.0000,1,   2,  11,   1,0.996530,-63.064625,1.100000,0.900000,1.100000,0.900000
  2061,'VERNON 1    ',161.0000,1,   2,  10,   1,1.024090,-38.264214,1.100000,0.900000,1.100000,0.900000
  2062,'VERNON 1    ', 18.0000,2,   2,  10,   1,1.020000,-35.967514,1.100000,0.900000,1.100000,0.900000
  2063,'DENISON     ',161.0000,1,   2,  11,   1,1.006070,-69.357834,1.100000,0.900000,1.100000,0.900000
  2064,'SUMNER 0    ',161.0000,1,   2,  11,   1,1.002380,-61.416328,1.100000,0.900000,1.100000,0.900000
  2065,'GAINESVI    ',161.0000,1,   2,  11,   1,1.023620,-66.686920,1.100000,0.900000,1.100000,0.900000
  2066,'ASPERMON    ',161.0000,1,   2,  10,   1,1.025450,-28.573011,1.100000,0.900000,1.100000,0.900000
  2067,'WICHITA     ',161.0000,1,   2,  11,   1,0.992860,-44.902321,1.100000,0.900000,1.100000,0.900000
  2068,'WINDTHOR    ',161.0000,1,   2,  11,   1,0.999360,-42.867714,1.100000,0.900000,1.100000,0.900000
  2069,'HOWE 0      ',161.0000,1,   2,  11,   1,1.022100,-70.201431,1.100000,0.900000,1.100000,0.900000
  2070,'ARCHER 2    ',161.0000,1,   2,  11,   1,1.001450,-42.448620,1.100000,0.900000,1.100000,0.900000
  2071,'ARCHER 2    ', 18.0000,2,   2,  11,   1,1.000000,-38.771114,1.100000,0.900000,1.100000,0.900000
  2072,'COLLINSV    ',161.0000,1,   2,  11,   1,1.016140,-68.335823,1.100000,0.900000,1.100000,0.900000
  2073,'JAYTON 0    ',161.0000,1,   2,  10,   1,1.026480,-26.079811,1.100000,0.900000,1.100000,0.900000
  2074,'JAYTON 1    ',115.0000,1,   2,  10,   1,1.014430,-24.230509,1.100000,0.900000,1.100000,0.900000
  2075,'JAYTON 2    ',115.0000,1,   2,  10,   1,1.014430,-24.230509,1.100000,0.900000,1.100000,0.900000
  2076,'JAYTON 3    ', 24.0000,1,   2,  10,   1,1.040150,-25.221811,1.100000,0.900000,1.100000,0.900000
  2077,'MUENSTER    ',161.0000,1,   2,  11,   1,1.021470,-62.268826,1.100000,0.900000,1.100000,0.900000
  2078,'MUENSTER    ', 13.8000,2,   2,  11,   1,1.020000,-58.952126,1.100000,0.900000,1.100000,0.900000
  2079,'PADUCAH     ',161.0000,1,   2,  10,   1,1.032790,-35.513515,1.100000,0.900000,1.100000,0.900000
  2080,'NOCONA 0    ',161.0000,1,   2,  11,   1,0.996620,-58.501522,1.100000,0.900000,1.100000,0.900000
  2081,'DODD CIT    ',161.0000,1,   2,  11,   1,1.000200,-66.174423,1.100000,0.900000,1.100000,0.900000
  2082,'WICHITA     ',161.0000,1,   2,  11,   1,1.004230,-45.689621,1.100000,0.900000,1.100000,0.900000
  2083,'WICHITA     ', 20.0000,1,   2,  11,   1,1.018790,-44.113918,1.100000,0.900000,1.100000,0.900000
  2084,'WICHITA     ', 20.0000,2,   2,  11,   1,1.004230,-45.689621,1.100000,0.900000,1.100000,0.900000
  2085,'WICHITA     ', 20.0000,2,   2,  11,   1,1.004230,-45.689621,1.100000,0.900000,1.100000,0.900000
  2086,'MONTAGUE    ',161.0000,1,   2,  11,   1,0.994240,-60.489826,1.100000,0.900000,1.100000,0.900000
  2087,'SPUR 0      ',161.0000,1,   2,  10,   1,1.028000,-28.413111,1.100000,0.900000,1.100000,0.900000
  2088,'ARCHER 1    ',161.0000,1,   2,  11,   1,1.000430,-42.567520,1.100000,0.900000,1.100000,0.900000
  2089,'ARCHER 1    ', 24.0000,2,   2,  11,   1,1.000000,-38.965416,1.100000,0.900000,1.100000,0.900000
  2090,'ANNONA 0    ',161.0000,1,   2,  11,   1,1.001580,-62.132023,1.100000,0.900000,1.100000,0.900000
  2091,'SEYMOUR     ',161.0000,1,   2,  10,   1,1.027300,-34.865513,1.100000,0.900000,1.100000,0.900000
  2092,'DENISON     ',161.0000,1,   2,  11,   1,1.005230,-67.673927,1.100000,0.900000,1.100000,0.900000
  2093,'PANHANDL    ',161.0000,1,   2,  10,   1,1.028680,-31.497614,1.100000,0.900000,1.100000,0.900000
  2094,'PANHANDL    ', 13.8000,2,   2,  10,   1,1.028680,-31.497614,1.100000,0.900000,1.100000,0.900000
  2095,'PANHANDL    ', 13.8000,2,   2,  10,   1,1.028680,-31.497614,1.100000,0.900000,1.100000,0.900000
  2096,'RALLS 1     ',500.0000,1,   2,  10,   1,1.029990,-28.782511,1.100000,0.900000,1.100000,0.900000
  2097,'RALLS 1     ',230.0000,1,   2,  10,   1,1.028660,-28.225512,1.100000,0.900000,1.100000,0.900000
  2098,'RALLS 1     ',161.0000,1,   2,  10,   1,1.034410,-31.334011,1.100000,0.900000,1.100000,0.900000
  2099,'RALLS 1     ', 18.0000,1,   2,  10,   1,1.029520,-28.641411,1.100000,0.900000,1.100000,0.900000
  2100,'RALLS 1     ', 18.0000,2,   2,  10,   1,1.020790,-26.176512,1.100000,0.900000,1.100000,0.900000
  2101,'SHERMAN     ',500.0000,1,   2,  11,   1,1.010150,-63.789627,1.100000,0.900000,1.100000,0.900000
  2102,'SHERMAN     ',161.0000,1,   2,  11,   1,1.010610,-65.227127,1.100000,0.900000,1.100000,0.900000
  2103,'SHERMAN     ', 20.0000,2,   2,  11,   1,1.010150,-63.789627,1.100000,0.900000,1.100000,0.900000
  2104,'SHERMAN     ', 20.0000,2,   2,  11,   1,1.010150,-63.789627,1.100000,0.900000,1.100000,0.900000
  2105,'SHERMAN     ', 20.0000,2,   2,  11,   1,1.010150,-63.789627,1.100000,0.900000,1.100000,0.900000
  2106,'WHITEWRI    ',161.0000,1,   2,  11,   1,0.988130,-67.207420,1.100000,0.900000,1.100000,0.900000
  2107,'SHERMAN     ',161.0000,1,   2,  11,   1,1.005050,-66.095230,1.100000,0.900000,1.100000,0.900000
  2108,'ROCHESTE    ',161.0000,1,   2,  10,   1,1.001820,-44.536716,1.100000,0.900000,1.100000,0.900000
  2109,'BURKBURN    ',161.0000,1,   2,  11,   1,1.008640,-47.233120,1.100000,0.900000,1.100000,0.900000
...
0 / END OF BUS DATA, BEGIN LOAD DATA
  1006,'1 ',1,   1,   9,   -25.730,     7.135,     0.000,     0.000,     0.000,     0.000,   1,1,0
  1010,'1 ',1,   1,   9,     0.000,     1.940,     0.000,     0.000,     0.000,     0.000,   1,1,0
  1011,'1 ',1,   1,   9,    -9.972,     0.000,     0.000,     0.000,     0.000,     0.000,   1,1,0
  1020,'1 ',1,   1,   9,     0.000,   -80.730,     0.000,     0.000,     0.000,     0.000,   1,1,0
  1056,'1 ',1,   1,   9,     0.000,   -77.316,     0.000,     0.000,     0.000,     0.000,   1,1,0
  1081,'1 ',1,   1,   9,     0.000,  -126.223,     0.000,     0.000,     0.000,     0.000,   1,1,0
  2017,'1 ',1,   2,  10,     0.000,   212.567,     0.000,     0.000,     0.000,     0.000,   1,1,0
  2076,'1 ',1,   2,  10,   -22.500,   -18.361,     0.000,     0.000,     0.000,     0.000,   1,1,0
  2083,'1 ',1,   2,  11,   -19.944,   -10.080,     0.000,     0.000,     0.000,     0.000,   1,1,0
  2096,'1 ',1,   2,  10,     0.000,    72.633,     0.000,     0.000,     0.000,     0.000,   1,1,0
  2099,'1 ',1,   2,  10,    -7.500,     1.440,     0.000,     0.000,     0.000,     0.000,   1,1,0
  2127,'1 ',1,   2,  10,     0.000,   216.320,     0.000,     0.000,     0.000,     0.000,   1,1,0
  3004,'1 ',1,   3,  27,   -28.130,     1.007,     0.000,     0.000,     0.000,     0.000,   1,1,0
  3019,'1 ',1,   3,  27,     0.000,   -45.790,     0.000,     0.000,     0.000,     0.000,   1,1,0
  3046,'1 ',1,   3,  27,     0.000,  -206.552,     0.000,     0.000,     0.000,     0.000,   1,1,0
  3047,'1 ',1,   3,  27,     0.000,  -123.433,     0.000,     0.000,     0.000,     0.000,   1,1,0
  3050,'1 ',1,   3,  28,     0.000,   -67.534,     0.000,     0.000,     0.000,     0.000,   1,1,0
  3088,'1 ',1,   3,  27,     0.000,  -134.348,     0.000,     0.000,     0.000,     0.000,   1,1,0
  3091,'1 ',1,   3,  27,     0.000,   -68.478,     0.000,     0.000,     0.000,     0.000,   1,1,0
  3120,'1 ',1,   3,  28,   -29.700,     0.000,     0.000,     0.000,     0.000,     0.000,   1,1,0
  4046,'1 ',1,   4,  19,   -28.500,    -3.363,     0.000,     0.000,     0.000,     0.000,   1,1,0
  4047,'1 ',1,   4,  19,   -27.484,    -7.180,     0.000,     0.000,     0.000,     0.000,   1,1,0
  4091,'1 ',1,   4,  19,   -23.434,     0.314,     0.000,     0.000,     0.000,     0.000,   1,1,0
  4093,'1 ',1,   4,  19,   -27.922,     0.974,     0.000,     0.000,     0.000,     0.000,   1,1,0
  4094,'1 ',1,   4,  19,   -27.922,     1.139,     0.000,     0.000,     0.000,     0.000,   1,1,0
  4095,'1 ',1,   4,  19,   -27.922,     0.817,     0.000,     0.000,     0.000,     0.000,   1,1,0
  4097,'1 ',1,   4,  19,   -27.922,     0.746,     0.000,     0.000,     0.000,     0.000,   1,1,0
  4131,'1 ',1,   4,  20,     0.000,   -76.182,     0.000,     0.000,     0.000,     0.000,   1,1,0
  4134,'1 ',1,   4,  20,   -10.210,     3.730,     0.000,     0.000,     0.000,     0.000,   1,1,0
  4135,'1 ',1,   4,  20,   -10.210,     3.730,     0.000,     0.000,     0.000,     0.000,   1,1,0
  4136,'1 ',1,   4,  20,   -10.210,     3.730,     0.000,     0.000,     0.000,     0.000,   1,1,0
  4141,'1 ',1,   4,  21,     0.000,   -91.520,     0.000,     0.000,     0.000,     0.000,   1,1,0
  4197,'1 ',1,   4,  20,     0.000,    -4.470,     0.000,     0.000,     0.000,     0.000,   1,1,0
  5061,'1 ',1,   5,  14,     0.000,   -37.582,     0.000,     0.000,     0.000,     0.000,   1,1,0
  5065,'1 ',1,   5,  17,   -10.570,    -5.400,     0.000,     0.000,     0.000,     0.000,   1,1,0
  5167,'1 ',1,   5,  17,    -1.596,    -0.810,     0.000,     0.000,     0.000,     0.000,   1,1,0
  5342,'1 ',1,   5,  17,    -8.400,    -3.201,     0.000,     0.000,     0.000,     0.000,   1,1,0
  5363,'1 ',1,   5,  12,   -10.371,     1.150,     0.000,     0.000,     0.000,     0.000,   1,1,0
  5423,'1 ',1,   5,  17,   -12.365,     1.380,     0.000,     0.000,     0.000,     0.000,   1,1,0
  6041,'1 ',1,   6,  23,     0.000,   -20.480,     0.000,     0.000,     0.000,     0.000,   1,1,0
  6042,'1 ',1,   6,  23,     0.000,   -47.534,     0.000,     0.000,     0.000,     0.000,   1,1,0
  6085,'1 ',1,   6,  23,    -1.050,     0.000,     0.000,     0.000,     0.000,     0.000,   1,1,0
  6086,'1 ',1,   6,  23,   -22.500,     0.000,     0.000,     0.000,     0.000,     0.000,   1,1,0
  6088,'1 ',1,   6,  23,    -7.950,     0.000,     0.000,     0.000,     0.000,     0.000,   1,1,0
  6089,'1 ',1,   6,  23,   -10.420,     0.000,     0.000,     0.000,     0.000,     0.000,   1,1,0
  6177,'1 ',1,   6,  26,     0.000,  -434.389,     0.000,     0.000,     0.000,     0.000,   1,1,0
  6229,'1 ',1,   6,  22,     0.000,  -342.736,     0.000,     0.000,     0.000,     0.000,   1,1,0
  6266,'1 ',1,   6,  24,    -4.500,    -1.719,     0.000,     0.000,     0.000,     0.000,   1,1,0
  6267,'1 ',1,   6,  24,    -7.200,    -2.727,     0.000,     0.000,     0.000,     0.000,   1,1,0
  6268,'1 ',1,   6,  24,    -4.500,    -1.719,     0.000,     0.000,     0.000,     0.000,   1,1,0
  6269,'1 ',1,   6,  24,    -7.200,    -2.727,     0.000,     0.000,     0.000,     0.000,   1,1,0
  6274,'1 ',1,   6,  24,    -8.400,    -3.201,     0.000,     0.000,     0.000,     0.000,   1,1,0
  7021,'1 ',1,   7,   6,   -22.337,   -22.956,     0.000,     0.000,     0.000,     0.000,   1,1,0
  7031,'1 ',1,   7,   6,   -29.100,     0.000,     0.000,     0.000,     0.000,     0.000,   1,1,0
  7032,'1 ',1,   7,   6,    -7.500,     0.000,     0.000,     0.000,     0.000,     0.000,   1,1,0
  7033,'1 ',1,   7,   6,    -7.500,     0.000,     0.000,     0.000,     0.000,     0.000,   1,1,0
  7133,'1 ',1,   7,   4,   -16.254,     1.810,     0.000,     0.000,     0.000,     0.000,   1,1,0
  7146,'1 ',1,   7,   4,   -10.172,     1.130,     0.000,     0.000,     0.000,     0.000,   1,1,0
  7150,'1 ',1,   7,   5,     0.000,  -175.666,     0.000,     0.000,     0.000,     0.000,   1,1,0
  7189,'1 ',1,   7,   3,    -6.881,    -3.510,     0.000,     0.000,     0.000,     0.000,   1,1,0
  7193,'1 ',1,   7,   3,    -7.479,    -3.820,     0.000,     0.000,     0.000,     0.000,   1,1,0
  7285,'1 ',1,   7,   4,   -21.220,     0.000,     0.000,     0.000,     0.000,     0.000,   1,1,0
  7286,'1 ',1,   7,   4,   -21.220,     0.000,     0.000,     0.000,     0.000,     0.000,   1,1,0
  7287,'1 ',1,   7,   4,   -21.220,     0.000,     0.000,     0.000,     0.000,     0.000,   1,1,0
  7288,'1 ',1,   7,   4,   -21.220,     0.000,     0.000,     0.000,     0.000,     0.000,   1,1,0
  7357,'1 ',1,   7,   3,   -16.254,    -8.300,     0.000,     0.000,     0.000,     0.000,   1,1,0
  8159,'1 ',1,   8,   7,     0.000,  -115.291,     0.000,     0.000,     0.000,     0.000,   1,1,0
 11001,'1 ',1,   1,   9,    20.781,     5.888,     0.000,     0.000,     0.000,     0.000,   1,1,0
 11002,'1 ',1,   1,   9,    15.414,     4.367,     0.000,     0.000,     0.000,     0.000,   1,1,0
 11007,'1 ',1,   1,   9,     7.008,     1.986,     0.000,     0.000,     0.000,     0.000,   1,1,0
 11012,'1 ',1,   1,   9,     2.985,    -8.934,     0.000,     0.000,     0.000,     0.000,   1,1,0
 11013,'1 ',1,   1,   9,    29.226,     8.280,     0.000,     0.000,     0.000,     0.000,   1,1,0
 11014,'1 ',1,   1,   9,     2.220,     0.629,     0.000,     0.000,     0.000,     0.000,   1,1,0
 11015,'1 ',1,   1,   9,     7.509,     2.128,     0.000,     0.000,     0.000,     0.000,   1,1,0
 11016,'1 ',1,   1,   9,     2.889,   -30.326,     0.000,     0.000,     0.000,     0.000,   1,1,0
 11017,'1 ',1,   1,   9,    18.345,     5.198,     0.000,     0.000,     0.000,     0.000,   1,1,0
 11018,'1 ',1,   1,   9,     0.069,     0.020,     0.000,     0.000,     0.000,     0.000,   1,1,0
 11019,'1 ',1,   1,   9,    61.776,  -126.451,     0.000,     0.000,     0.000,     0.000,   1,1,0
 11024,'1 ',1,   1,   9,    63.039,    17.861,     0.000,     0.000,     0.000,     0.000,   1,1,0
 11027,'1 ',1,   1,   9,   101.211,   -48.392,     0.000,     0.000,     0.000,     0.000,   1,1,0
 11028,'1 ',1,   1,   9,    10.014,     2.837,     0.000,     0.000,     0.000,     0.000,   1,1,0
 11029,'1 ',1,   1,   9,    83.184,   -17.237,     0.000,     0.000,     0.000,     0.000,   1,1,0
 11030,'1 ',1,   1,   9,    24.627,     6.978,     0.000,     0.000,     0.000,     0.000,   1,1,0
 11031,'1 ',1,   1,   9,     9.246,     2.620,     0.000,     0.000,     0.000,     0.000,   1,1,0
 11036,'1 ',1,   1,   9,    13.596,     3.852,     0.000,     0.000,     0.000,     0.000,   1,1,0
 11037,'1 ',1,   1,   9,   102.237,    28.967,     0.000,     0.000,     0.000,     0.000,   1,1,0
 11040,'1 ',1,   1,   9,    44.358,    12.568,     0.000,     0.000,     0.000,     0.000,   1,1,0
 11044,'1 ',1,   1,   9,    14.682,     4.159,     0.000,     0.000,     0.000,     0.000,   1,1,0
 11045,'1 ',1,   1,   9,    98.562,    27.926,     0.000,     0.000,     0.000,     0.000,   1,1,0
 11046,'1 ',1,   1,   9,    11.085,    -9.542,     0.000,     0.000,     0.000,     0.000,   1,1,0
 11054,'1 ',1,   1,   9,    14.988,     4.246,     0.000,     0.000,     0.000,     0.000,   1,1,0
 11055,'1 ',1,   1,   9,     3.978,     1.127,     0.000,     0.000,     0.000,     0.000,   1,1,0
 11058,'1 ',1,   1,   9,    13.455,     3.813,     0.000,     0.000,     0.000,     0.000,   1,1,0
 11064,'1 ',1,   1,   9,   123.759,    35.065,     0.000,     0.000,     0.000,     0.000,   1,1,0
 11067,'1 ',1,   1,   9,   101.550,    28.773,     0.000,     0.000,     0.000,     0.000,   1,1,0
 11068,'1 ',1,   1,   9,    59.403,    16.830,     0.000,     0.000,     0.000,     0.000,   1,1,0
 11071,'1 ',1,   1,   9,    91.464,    25.915,     0.000,     0.000,     0.000,     0.000,   1,1,0
 11083,'1 ',1,   1,   9,    39.945,   -15.933,     0.000,     0.000,     0.000,     0.000,   1,1,0
 11085,'1 ',1,   1,   9,    21.297,     6.034,     0.000,     0.000,     0.000,     0.000,   1,1,0
 11086,'1 ',1,   1,   9,    39.672,   -19.844,     0.000,     0.000,     0.000,     0.000,   1,1,0
 11087,'1 ',1,   1,   9,     0.909,   -17.634,     0.000,     0.000,     0.000,     0.000,   1,1,0
 11089,'1 ',1,   1,   9,    40.605,    11.504,     0.000,     0.000,     0.000,     0.000,   1,1,0
 11091,'1 ',1,   1,   9,    11.622,     3.293,     0.000,     0.000,     0.000,     0.000,   1,1,0
 12001,'1 ',1,   2,  11,    48.357,    13.701,     0.000,     0.000,     0.000,     0.000,   1,1,0
 12007,'1 ',1,   2,  11,     9.540,     2.703,     0.000,     0.000,     0.000,     0.000,   1,1,0
 12008,'1 ',1,   2,  10,     8.061,     2.284,     0.000,     0.000,     0.000,     0.000,   1,1,0
 12009,'1 ',1,   2,  11,    39.135,  -114.748,     0.000,     0.000,     0.000,     0.000,   1,1,0
 12010,'1 ',1,   2,  10,    56.805,   -15.928,     0.000,     0.000,     0.000,     0.000,   1,1,0
 12014,'1 ',1,   2,  10,    25.428,     7.205,     0.000,     0.000,     0.000,     0.000,   1,1,0
 12015,'1 ',1,   2,  11,     4.686,     1.328,     0.000,     0.000,     0.000,     0.000,   1,1,0
 12016,'1 ',1,   2,  11,    69.267,    19.626,     0.000,     0.000,     0.000,     0.000,   1,1,0
 12020,'1 ',1,   2,  11,    47.973,    13.592,     0.000,     0.000,     0.000,     0.000,   1,1,0
 12022,'1 ',1,   2,  11,    11.565,     3.277,     0.000,     0.000,     0.000,     0.000,   1,1,0
 12025,'1 ',1,   2,  11,    39.618,    11.225,     0.000,     0.000,     0.000,     0.000,   1,1,0
 12026,'1 ',1,   2,  10,    18.570,     5.261,     0.000,     0.000,     0.000,     0.000,   1,1,0
 12027,'1 ',1,   2,  11,     3.555,     1.007,     0.000,     0.000,     0.000,     0.000,   1,1,0
 12028,'1 ',1,   2,  11,    14.238,     4.034,     0.000,     0.000,     0.000,     0.000,   1,1,0
 12029,'1 ',1,   2,  10,     3.201,     0.907,     0.000,     0.000,     0.000,     0.000,   1,1,0
 12030,'1 ',1,   2,  11,    47.145,    13.357,     0.000,     0.000,     0.000,     0.000,   1,1,0
 12031,'1 ',1,   2,  10,     5.766,     1.634,     0.000,     0.000,     0.000,     0.000,   1,1,0
 12032,'1 ',1,   2,  11,     3.354,     0.950,     0.000,     0.000,     0.000,     0.000,   1,1,0
 12033,'1 ',1,   2,  11,    13.572,     3.846,     0.000,     0.000,     0.000,     0.000,   1,1,0
 12034,'1 ',1,   2,  11,     5.340,     1.513,     0.000,     0.000,     0.000,     0.000,   1,1,0
 12035,'1 ',1,   2,  10,     4.683,     1.327,     0.000,     0.000,     0.000,     0.000,   1,1,0
 12036,'1 ',1,   2,  11,    41.586,    11.783,     0.000,     0.000,     0.000,     0.000,   1,1,0
 12037,'1 ',1,   2,  11,     3.501,     0.991,     0.000,     0.000,     0.000,     0.000,   1,1,0
 12038,'1 ',1,   2,  11,     2.604,     0.738,     0.000,     0.000,     0.000,     0.000,   1,1,0
 12039,'1 ',1,   2,  11,     5.559,     1.575,     0.000,     0.000,     0.000,     0.000,   1,1,0
 12040,'1 ',1,   2,  11,    15.903,     4.506,     0.000,     0.000,     0.000,     0.000,   1,1,0
 12043,'1 ',1,   2,  11,     4.236,     1.200,     0.000,     0.000,     0.000,     0.000,   1,1,0
 12044,'1 ',1,   2,  11,    27.405,     7.765,     0.000,     0.000,     0.000,     0.000,   1,1,0
 12045,'1 ',1,   2,  11,    22.605,     6.405,     0.000,     0.000,     0.000,     0.000,   1,1,0
 12046,'1 ',1,   2,  11,    22.134,     6.271,     0.000,     0.000,     0.000,     0.000,   1,1,0
 12047,'1 ',1,   2,  11,    14.955,     4.238,     0.000,     0.000,     0.000,     0.000,   1,1,0
 12048,'1 ',1,   2,  10,     6.417,     1.818,     0.000,     0.000,     0.000,     0.000,   1,1,0
 12049,'1 ',1,   2,  10,    11.571,     3.279,     0.000,     0.000,     0.000,     0.000,   1,1,0
 12050,'1 ',1,   2,  11,     3.657,     1.036,     0.000,     0.000,     0.000,     0.000,   1,1,0
 12051,'1 ',1,   2,  11,    17.850,     5.057,     0.000,     0.000,     0.000,     0.000,   1,1,0
 12052,'1 ',1,   2,  10,    24.837,     7.037,     0.000,     0.000,     0.000,     0.000,   1,1,0
 12053,'1 ',1,   2,  11,    29.133,     8.254,     0.000,     0.000,     0.000,     0.000,   1,1,0
 12055,'1 ',1,   2,  11,    49.620,    14.059,     0.000,     0.000,     0.000,     0.000,   1,1,0
 12060,'1 ',1,   2,  11,     3.795,     1.075,     0.000,     0.000,     0.000,     0.000,   1,1,0
 12063,'1 ',1,   2,  11,    65.616,   -22.166,     0.000,     0.000,     0.000,     0.000,   1,1,0
 12064,'1 ',1,   2,  11,    10.047,     2.847,     0.000,     0.000,     0.000,     0.000,   1,1,0
 12065,'1 ',1,   2,  11,    78.360,   -83.187,     0.000,     0.000,     0.000,     0.000,   1,1,0
 12066,'1 ',1,   2,  10,     7.113,     2.015,     0.000,     0.000,     0.000,     0.000,   1,1,0
 12067,'1 ',1,   2,  11,    53.967,    15.291,     0.000,     0.000,     0.000,     0.000,   1,1,0
 12068,'1 ',1,   2,  11,     5.760,     1.632,     0.000,     0.000,     0.000,     0.000,   1,1,0
 12069,'1 ',1,   2,  11,    21.924,  -120.024,     0.000,     0.000,     0.000,     0.000,   1,1,0
 12072,'1 ',1,   2,  11,     9.705,     2.750,     0.000,     0.000,     0.000,     0.000,   1,1,0
 12079,'1 ',1,   2,  10,     4.479,     1.269,     0.000,     0.000,     0.000,     0.000,   1,1,0
 12080,'1 ',1,   2,  11,    16.932,     4.797,     0.000,     0.000,     0.000,     0.000,   1,1,0
 12081,'1 ',1,   2,  11,     4.464,     1.265,     0.000,     0.000,     0.000,     0.000,   1,1,0
 12082,'1 ',1,   2,  11,    59.031,    16.725,     0.000,     0.000,     0.000,     0.000,   1,1,0
 12086,'1 ',1,   2,  11,     2.193,     0.621,     0.000,     0.000,     0.000,     0.000,   1,1,0
 12087,'1 ',1,   2,  10,     7.896,     2.237,     0.000,     0.000,     0.000,     0.000,   1,1,0
 12090,'1 ',1,   2,  11,     2.424,     0.687,     0.000,     0.000,     0.000,     0.000,   1,1,0
 12091,'1 ',1,   2,  10,    17.046,     4.830,     0.000,     0.000,     0.000,     0.000,   1,1,0
 12092,'1 ',1,   2,  11,    24.108,     6.831,     0.000,     0.000,     0.000,     0.000,   1,1,0
 12106,'1 ',1,   2,  11,    14.403,     4.081,     0.000,     0.000,     0.000,     0.000,   1,1,0
 12107,'1 ',1,   2,  11,    74.151,    21.009,     0.000,     0.000,     0.000,     0.000,   1,1,0
 12108,'1 ',1,   2,  10,     2.145,     0.608,     0.000,     0.000,     0.000,     0.000,   1,1,0
 12109,'1 ',1,   2,  11,    33.810,     9.579,     0.000,     0.000,     0.000,     0.000,   1,1,0
 12110,'1 ',1,   2,  11,     8.589,   -50.273,     0.000,     0.000,     0.000,     0.000,   1,1,0
 12111,'1 ',1,   2,  11,    13.953,     3.953,     0.000,     0.000,     0.000,     0.000,   1,1,0
 12112,'1 ',1,   2,  11,     4.542,     1.287,     0.000,     0.000,     0.000,     0.000,   1,1,0
 12114,'1 ',1,   2,  11,    70.776,    20.053,     0.000,     0.000,     0.000,     0.000,   1,1,0
 12121,'1 ',1,   2,  11,     2.334,     0.661,     0.000,     0.000,     0.000,     0.000,   1,1,0
 12122,'1 ',1,   2,  11,     6.723,     1.905,     0.000,     0.000,     0.000,     0.000,   1,1,0
 12124,'1 ',1,   2,  11,    21.285,     6.031,     0.000,     0.000,     0.000,     0.000,   1,1,0
 12125,'1 ',1,   2,  11,     4.056,     1.149,     0.000,     0.000,     0.000,     0.000,   1,1,0
 12126,'1 ',1,   2,  11,    14.235,     4.033,     0.000,     0.000,     0.000,     0.000,   1,1,0
 12129,'1 ',1,   2,  11,     6.633,     1.879,     0.000,     0.000,     0.000,     0.000,   1,1,0
 12132,'1 ',1,   2,  10,    11.940,    -6.954,     0.000,     0.000,     0.000,     0.000,   1,1,0
 12133,'1 ',1,   2,  11,     5.679,     1.609,     0.000,     0.000,     0.000,     0.000,   1,1,0
 13002,'1 ',1,   3,  28,   112.860,    31.977,     0.000,     0.000,     0.000,     0.000,   1,1,0
 13005,'1 ',1,   3,  28,     7.341,     2.080,     0.000,     0.000,     0.000,     0.000,   1,1,0
 13006,'1 ',1,   3,  27,     7.347,     2.082,     0.000,     0.000,     0.000,     0.000,   1,1,0
 13007,'1 ',1,   3,  27,    14.964,     4.240,     0.000,     0.000,     0.000,     0.000,   1,1,0
 13008,'1 ',1,   3,  27,    19.809,     5.612,     0.000,     0.000,     0.000,     0.000,   1,1,0
 13009,'1 ',1,   3,  28,    12.540,     3.553,     0.000,     0.000,     0.000,     0.000,   1,1,0
 13010,'1 ',1,   3,  28,     4.671,     1.323,     0.000,     0.000,     0.000,     0.000,   1,1,0
 13011,'1 ',1,   3,  28,    27.138,     7.689,     0.000,     0.000,     0.000,     0.000,   1,1,0
 13012,'1 ',1,   3,  28,     0.564,     0.160,     0.000,     0.000,     0.000,     0.000,   1,1,0
 13013,'1 ',1,   3,  27,    64.557,   -49.178,     0.000,     0.000,     0.000,     0.000,   1,1,0
 13014,'1 ',1,   3,  28,    22.002,     6.234,     0.000,     0.000,     0.000,     0.000,   1,1,0
 13015,'1 ',1,   3,  27,     5.364,     1.520,     0.000,     0.000,     0.000,     0.000,   1,1,0
 13021,'1 ',1,   3,  27,     1.941,     0.550,     0.000,     0.000,     0.000,     0.000,   1,1,0
 13022,'1 ',1,   3,  27,    24.591,     6.967,     0.000,     0.000,     0.000,     0.000,   1,1,0
 13023,'1 ',1,   3,  27,    10.407,   -49.777,     0.000,     0.000,     0.000,     0.000,   1,1,0
 13024,'1 ',1,   3,  28,    10.131,     2.870,     0.000,     0.000,     0.000,     0.000,   1,1,0
 13025,'1 ',1,   3,  28,    13.674,     3.874,     0.000,     0.000,     0.000,     0.000,   1,1,0
 13029,'1 ',1,   3,  28,     4.866,     1.379,     0.000,     0.000,     0.000,     0.000,   1,1,0
 13030,'1 ',1,   3,  27,   129.720,   -46.122,     0.000,     0.000,     0.000,     0.000,   1,1,0
 13031,'1 ',1,   3,  27,    14.733,     4.174,     0.000,     0.000,     0.000,     0.000,   1,1,0
 13032,'1 ',1,   3,  27,    72.864,    20.645,     0.000,     0.000,     0.000,     0.000,   1,1,0
 13035,'1 ',1,   3,  28,     3.465,     0.982,     0.000,     0.000,     0.000,     0.000,   1,1,0
 13036,'1 ',1,   3,  28,     5.802,     1.644,     0.000,     0.000,     0.000,     0.000,   1,1,0
 13040,'1 ',1,   3,  27,    14.607,     4.139,     0.000,     0.000,     0.000,     0.000,   1,1,0
 13042,'1 ',1,   3,  27,     8.754,     2.480,     0.000,     0.000,     0.000,     0.000,   1,1,0
...
0 / END OF LOAD DATA, BEGIN FIXED SHUNT DATA
0 / END OF FIXED SHUNT DATA, BEGIN GENERATOR DATA
  1004,'1 ',   158.250,   -30.380,    44.940,   -30.380,1.010000,     0,   253.200,   0.00000,   0.20000,   0.00000,   0.00000,   1.00000,1,  100.0,   211.000,    63.300,   1,1.0000,0,1,0,1,0,1,0,0
  1009,'1 ',    61.870,   -11.880,    17.570,   -11.880,1.000000,     0,    99.000,   0.00000,   0.20000,   0.00000,   0.00000,   1.00000,1,  100.0,    82.500,    24.750,   1,1.0000,0,1,0,1,0,1,0,0
  1021,'1 ',   149.630,   -28.627,    42.490,   -28.730,1.000000,     0,   239.400,   0.00000,   0.20000,   0.00000,   0.00000,   1.00000,1,  100.0,   199.500,    59.850,   1,1.0000,0,1,0,1,0,1,0,0
  1023,'1 ',   135.000,    -0.320,    38.340,   -25.920,1.010000,     0,   216.000,   0.00000,   0.20000,   0.00000,   0.00000,   1.00000,1,  100.0,   180.000,    54.000,   1,1.0000,0,1,0,1,0,1,0,0
  1026,'1 ',    93.150,    -5.273,    26.450,   -17.880,1.000000,     0,   149.040,   0.00000,   0.20000,   0.00000,   0.00000,   1.00000,1,  100.0,   124.200,    37.260,   1,1.0000,0,1,0,1,0,1,0,0
  1033,'1 ',   208.500,   -40.030,    59.210,   -40.030,1.000000,     0,   333.600,   0.00000,   0.20000,   0.00000,   0.00000,   1.00000,1,  100.0,   278.000,    83.400,   1,1.0000,0,1,0,1,0,1,0,0
  1035,'1 ',    67.500,    -7.937,    19.170,   -12.960,1.000000,     0,   108.000,   0.00000,   0.20000,   0.00000,   0.00000,   1.00000,1,  100.0,    90.000,    27.000,   1,1.0000,0,1,0,1,0,1,0,0
  1039,'1 ',   110.630,   -17.254,    31.420,   -21.240,1.000000,     0,   177.000,   0.00000,   0.20000,   0.00000,   0.00000,   1.00000,1,  100.0,   147.500,    44.250,   1,1.0000,0,1,0,1,0,1,0,0
  1042,'1 ',     0.000,   -10.549,    25.960,   -17.550,1.000000,     0,   146.280,   0.00000,   0.20000,   0.00000,   0.00000,   1.00000,0,  100.0,   121.900,    36.570,   1,1.0000,0,1,0,1,0,1,0,0
  1043,'1 ',    44.100,    -2.604,    12.520,    -8.470,1.000000,     0,    70.560,   0.00000,   0.20000,   0.00000,   0.00000,   1.00000,1,  100.0,    58.800,    17.640,   1,1.0000,0,1,0,1,0,1,0,0
  1048,'1 ',     0.000,     0.000,   165.530,   -36.100,1.000000,     0,   390.240,   0.00000,   0.20000,   0.00000,   0.00000,   1.00000,0,  100.0,   325.200,    97.560,   1,1.0000,0,1,0,1,0,1,0,0
  1049,'1 ',     0.000,     0.000,   165.530,   -36.100,1.000000,     0,   390.240,   0.00000,   0.20000,   0.00000,   0.00000,   1.00000,0,  100.0,   325.200,    97.560,   1,1.0000,0,1,0,1,0,1,0,0
  1050,'1 ',    89.150,    -5.384,    45.500,    -9.920,1.000000,     0,   107.280,   0.00000,   0.20000,   0.00000,   0.00000,   1.00000,1,  100.0,    89.400,    26.820,   1,1.0000,0,1,0,1,0,1,0,0
  1051,'1 ',    89.150,    -3.845,    45.500,    -9.920,1.000000,     0,   107.280,   0.00000,   0.20000,   0.00000,   0.00000,   1.00000,1,  100.0,    89.400,    26.820,   1,1.0000,0,1,0,1,0,1,0,0
  1052,'1 ',    89.150,    -8.530,    45.500,    -9.920,1.000000,     0,   107.280,   0.00000,   0.20000,   0.00000,   0.00000,   1.00000,1,  100.0,    89.400,    26.820,   1,1.0000,0,1,0,1,0,1,0,0
  1053,'1 ',     0.000,     0.000,    91.010,   -19.850,1.000000,     0,   214.560,   0.00000,   0.20000,   0.00000,   0.00000,   1.00000,0,  100.0,   178.800,    53.640,   1,1.0000,0,1,0,1,0,1,0,0
  1057,'1 ',     0.000,    -7.656,    25.560,   -17.280,1.000000,     0,   144.000,   0.00000,   0.20000,   0.00000,   0.00000,   1.00000,0,  100.0,   120.000,    36.000,   1,1.0000,0,1,0,1,0,1,0,0
  1059,'1 ',     0.000,     0.000,     2.850,    -0.620,1.040000,     0,     6.720,   0.00000,   0.20000,   0.00000,   0.00000,   1.00000,0,  100.0,     5.600,     1.680,   1,1.0000,0,1,0,1,0,1,0,0
  1060,'1 ',     0.000,     0.000,     1.020,    -0.220,1.040000,     0,     2.400,   0.00000,   0.20000,   0.00000,   0.00000,   1.00000,0,  100.0,     2.000,     0.600,   1,1.0000,0,1,0,1,0,1,0,0
  1062,'1 ',     0.000,     0.000,     0.000,     0.000,1.010000,     0,     1.800,   0.00000,   0.20000,   0.00000,   0.00000,   1.00000,0,  100.0,     1.500,     0.450,   1,1.0000,0,1,0,1,0,1,0,0
  1063,'1 ',     0.000,     0.000,     0.000,     0.000,1.010000,     0,   276.000,   0.00000,   0.20000,   0.00000,   0.00000,   1.00000,0,  100.0,   230.000,    69.000,   1,1.0000,0,1,0,1,0,1,0,0
  1066,'1 ',   106.880,    -2.744,    30.350,   -20.520,1.000000,     0,   171.000,   0.00000,   0.20000,   0.00000,   0.00000,   1.00000,1,  100.0,   142.500,    42.750,   1,1.0000,0,1,0,1,0,1,0,0
  1070,'1 ',   120.380,    22.010,    34.190,   -23.110,1.040000,     0,   192.600,   0.00000,   0.20000,   0.00000,   0.00000,   1.00000,1,  100.0,   160.500,    48.150,   1,1.0000,0,1,0,1,0,1,0,0
  1072,'1 ',   191.594,    28.327,    97.800,   -21.330,1.010000,     0,   230.560,   0.00000,   0.20000,   0.00000,   0.00000,   1.00000,1,  100.0,   192.130,    57.640,   1,1.0000,0,1,0,1,0,1,0,0
  1073,'1 ',   191.594,    34.437,    97.800,   -21.330,1.010000,     0,   230.560,   0.00000,   0.20000,   0.00000,   0.00000,   1.00000,1,  100.0,   192.130,    57.640,   1,1.0000,0,1,0,1,0,1,0,0
  1074,'1 ',   191.594,    30.946,    97.800,   -21.330,1.010000,     0,   230.560,   0.00000,   0.20000,   0.00000,   0.00000,   1.00000,1,  100.0,   192.130,    57.640,   1,1.0000,0,1,0,1,0,1,0,0
  1075,'1 ',   191.594,    32.228,    97.800,   -21.330,1.010000,     0,   230.560,   0.00000,   0.20000,   0.00000,   0.00000,   1.00000,1,  100.0,   192.130,    57.640,   1,1.0000,0,1,0,1,0,1,0,0
  1076,'1 ',     0.000,     0.000,    97.800,   -21.330,1.010000,     0,   230.560,   0.00000,   0.20000,   0.00000,   0.00000,   1.00000,0,  100.0,   192.130,    57.640,   1,1.0000,0,1,0,1,0,1,0,0
  1077,'1 ',     0.000,     0.000,    97.800,   -21.330,1.010000,     0,   230.560,   0.00000,   0.20000,   0.00000,   0.00000,   1.00000,0,  100.0,   192.130,    57.640,   1,1.0000,0,1,0,1,0,1,0,0
  1078,'1 ',    95.233,    17.034,    48.610,   -10.600,1.010000,     0,   114.600,   0.00000,   0.20000,   0.00000,   0.00000,   1.00000,1,  100.0,    95.500,    28.650,   1,1.0000,0,1,0,1,0,1,0,0
  1079,'1 ',    95.233,   -10.600,    48.610,   -10.600,1.010000,     0,   114.600,   0.00000,   0.20000,   0.00000,   0.00000,   1.00000,1,  100.0,    95.500,    28.650,   1,1.0000,0,1,0,1,0,1,0,0
  1080,'1 ',    95.233,    13.846,    48.610,   -10.600,1.010000,     0,   114.600,   0.00000,   0.20000,   0.00000,   0.00000,   1.00000,1,  100.0,    95.500,    28.650,   1,1.0000,0,1,0,1,0,1,0,0
  1081,'1 ',     0.000,     0.000,   145.830,   -31.800,1.010000,     0,   343.800,   0.00000,   0.20000,   0.00000,   0.00000,   1.00000,0,  100.0,   286.500,    85.950,   1,1.0000,0,1,0,1,0,1,0,0
  1082,'1 ',   112.500,   -21.600,    31.950,   -21.600,1.000000,     0,   180.000,   0.00000,   0.20000,   0.00000,   0.00000,   1.00000,1,  100.0,   150.000,    45.000,   1,1.0000,0,1,0,1,0,1,0,0
  1084,'1 ',    86.620,    24.600,    24.600,   -16.630,1.040000,     0,   138.600,   0.00000,   0.20000,   0.00000,   0.00000,   1.00000,1,  100.0,   115.500,    34.650,   1,1.0000,0,1,0,1,0,1,0,0
  1088,'1 ',    56.250,     0.482,    15.970,   -10.800,1.000000,     0,    90.000,   0.00000,   0.20000,   0.00000,   0.00000,   1.00000,1,  100.0,    75.000,    22.500,   1,1.0000,0,1,0,1,0,1,0,0
  1090,'1 ',   141.370,    32.480,    32.480,   -21.960,1.020000,     0,   183.000,   0.00000,   0.20000,   0.00000,   0.00000,   1.00000,1,  100.0,   152.500,    45.750,   1,1.0000,0,1,0,1,0,1,0,0
  2004,'1 ',     0.000,     0.000,   199.430,   -43.490,1.020000,     0,   470.160,   0.00000,   0.20000,   0.00000,   0.00000,   1.00000,0,  100.0,   391.800,   117.540,   1,1.0000,0,1,0,1,0,1,0,0
  2005,'1 ',     0.000,     0.000,   199.430,   -43.490,1.020000,     0,   470.160,   0.00000,   0.20000,   0.00000,   0.00000,   1.00000,0,  100.0,   391.800,   117.540,   1,1.0000,0,1,0,1,0,1,0,0
  2006,'1 ',     0.000,     0.000,   199.430,   -43.490,1.020000,     0,   470.160,   0.00000,   0.20000,   0.00000,   0.00000,   1.00000,0,  100.0,   391.800,   117.540,   1,1.0000,0,1,0,1,0,1,0,0
  2013,'1 ',   150.450,   -28.890,    42.730,   -28.890,1.000000,     0,   240.720,   0.00000,   0.20000,   0.00000,   0.00000,   1.00000,1,  100.0,   200.600,    60.180,   1,1.0000,0,1,0,1,0,1,0,0
  2019,'1 ',     0.000,    46.430,    46.430,   -31.390,1.040000,     0,   261.600,   0.00000,   0.20000,   0.00000,   0.00000,   1.00000,0,  100.0,   218.000,    65.400,   1,1.0000,0,1,0,1,0,1,0,0
  2023,'1 ',    83.097,    18.823,    42.420,    -9.250,1.020000,     0,   100.000,   0.00000,   0.20000,   0.00000,   0.00000,   1.00000,1,  100.0,    83.330,    25.000,   1,1.0000,0,1,0,1,0,1,0,0
  2024,'1 ',   166.205,    27.459,    84.830,   -18.500,1.020000,     0,   200.000,   0.00000,   0.20000,   0.00000,   0.00000,   1.00000,1,  100.0,   166.670,    50.000,   1,1.0000,0,1,0,1,0,1,0,0
  2042,'1 ',    59.700,   -11.460,    16.950,   -11.460,1.010000,     0,    95.520,   0.00000,   0.20000,   0.00000,   0.00000,   1.00000,1,  100.0,    79.600,    23.880,   1,1.0000,0,1,0,1,0,1,0,0
  2056,'1 ',     0.000,     0.000,     2.800,    -0.730,0.990000,     0,     7.200,   0.00000,   0.20000,   0.00000,   0.00000,   1.00000,0,  100.0,     6.000,     1.800,   1,1.0000,0,1,0,1,0,1,0,0
  2057,'1 ',   573.575,   -51.900,   335.520,   -87.840,0.990000,     0,   864.000,   0.00000,   0.20000,   0.00000,   0.00000,   1.00000,1,  100.0,   720.000,   216.000,   1,1.0000,0,1,0,1,0,1,0,0
  2059,'1 ',    60.000,   -11.520,    17.040,   -11.520,1.000000,     0,    96.000,   0.00000,   0.20000,   0.00000,   0.00000,   1.00000,1,  100.0,    80.000,    24.000,   1,1.0000,0,1,0,1,0,1,0,0
  2062,'1 ',   101.550,   -12.076,    28.840,   -19.500,1.020000,     0,   162.480,   0.00000,   0.20000,   0.00000,   0.00000,   1.00000,1,  100.0,   135.400,    40.620,   1,1.0000,0,1,0,1,0,1,0,0
  2071,'1 ',   112.500,    -1.471,    31.950,   -21.600,1.000000,     0,   180.000,   0.00000,   0.20000,   0.00000,   0.00000,   1.00000,1,  100.0,   150.000,    45.000,   1,1.0000,0,1,0,1,0,1,0,0
  2078,'1 ',    84.380,    -2.018,    23.960,   -16.200,1.020000,     0,   135.000,   0.00000,   0.20000,   0.00000,   0.00000,   1.00000,1,  100.0,   112.500,    33.750,   1,1.0000,0,1,0,1,0,1,0,0
  2084,'1 ',     0.000,     0.000,    10.180,    -2.220,1.020000,     0,    24.000,   0.00000,   0.20000,   0.00000,   0.00000,   1.00000,0,  100.0,    20.000,     6.000,   1,1.0000,0,1,0,1,0,1,0,0
  2085,'1 ',     0.000,     0.000,    20.360,    -4.440,1.020000,     0,    48.000,   0.00000,   0.20000,   0.00000,   0.00000,   1.00000,0,  100.0,    40.000,    12.000,   1,1.0000,0,1,0,1,0,1,0,0
  2089,'1 ',    50.700,     0.191,    14.400,    -9.730,1.000000,     0,    81.120,   0.00000,   0.20000,   0.00000,   0.00000,   1.00000,1,  100.0,    67.600,    20.280,   1,1.0000,0,1,0,1,0,1,0,0
  2094,'1 ',     0.000,     0.000,     2.130,    -1.440,1.000000,     0,    12.000,   0.00000,   0.20000,   0.00000,   0.00000,   1.00000,0,  100.0,    10.000,     3.000,   1,1.0000,0,1,0,1,0,1,0,0
  2095,'1 ',     0.000,     0.000,    16.930,   -11.450,1.000000,     0,    95.400,   0.00000,   0.20000,   0.00000,   0.00000,   1.00000,0,  100.0,    79.500,    23.850,   1,1.0000,0,1,0,1,0,1,0,0
  2100,'1 ',   112.500,   -21.600,    31.950,   -21.600,1.020000,     0,   180.000,   0.00000,   0.20000,   0.00000,   0.00000,   1.00000,1,  100.0,   150.000,    45.000,   1,1.0000,0,1,0,1,0,1,0,0
  2103,'1 ',     0.000,     0.000,   136.280,   -29.720,1.000000,     0,   321.280,   0.00000,   0.20000,   0.00000,   0.00000,   1.00000,0,  100.0,   267.730,    80.320,   1,1.0000,0,1,0,1,0,1,0,0
  2104,'1 ',     0.000,     0.000,   136.280,   -29.720,1.000000,     0,   321.280,   0.00000,   0.20000,   0.00000,   0.00000,   1.00000,0,  100.0,   267.730,    80.320,   1,1.0000,0,1,0,1,0,1,0,0
  2105,'1 ',     0.000,     0.000,   136.280,   -29.720,1.000000,     0,   321.280,   0.00000,   0.20000,   0.00000,   0.00000,   1.00000,0,  100.0,   267.730,    80.320,   1,1.0000,0,1,0,1,0,1,0,0
  2115,'1 ',   184.204,   -20.500,    94.020,   -20.500,1.000000,     0,   221.660,   0.00000,   0.20000,   0.00000,   0.00000,   1.00000,1,  100.0,   184.720,    55.410,   1,1.0000,0,1,0,1,0,1,0,0
  2116,'1 ',   184.204,   -20.500,    94.020,   -20.500,1.000000,     0,   221.660,   0.00000,   0.20000,   0.00000,   0.00000,   1.00000,1,  100.0,   184.720,    55.410,   1,1.0000,0,1,0,1,0,1,0,0
  2117,'1 ',   184.204,   -20.500,    94.020,   -20.500,1.000000,     0,   221.660,   0.00000,   0.20000,   0.00000,   0.00000,   1.00000,1,  100.0,   184.720,    55.410,   1,1.0000,0,1,0,1,0,1,0,0
  2118,'1 ',   184.204,   -20.500,    94.020,   -20.500,1.000000,     0,   221.660,   0.00000,   0.20000,   0.00000,   0.00000,   1.00000,1,  100.0,   184.720,    55.410,   1,1.0000,0,1,0,1,0,1,0,0
  2119,'1 ',   184.204,   -20.500,    94.020,   -20.500,1.000000,     0,   221.660,   0.00000,   0.20000,   0.00000,   0.00000,   1.00000,1,  100.0,   184.720,    55.410,   1,1.0000,0,1,0,1,0,1,0,0
  2120,'1 ',   184.204,    -1.534,    94.020,   -20.500,1.010000,     0,   221.660,   0.00000,   0.20000,   0.00000,   0.00000,   1.00000,1,  100.0,   184.720,    55.410,   1,1.0000,0,1,0,1,0,1,0,0
  2123,'1 ',   136.280,   -26.160,    38.700,   -26.160,1.000000,     0,   218.040,   0.00000,   0.20000,   0.00000,   0.00000,   1.00000,1,  100.0,   181.700,    54.510,   1,1.0000,0,1,0,1,0,1,0,0
  2127,'1 ',   216.450,    22.297,    61.470,   -41.560,1.040000,     0,   346.320,   0.00000,   0.20000,   0.00000,   0.00000,   1.00000,1,  100.0,   288.600,    86.580,   1,1.0000,0,1,0,1,0,1,0,0
  3017,'1 ',   127.130,     0.044,    36.100,   -24.410,1.010000,     0,   203.400,   0.00000,   0.20000,   0.00000,   0.00000,   1.00000,1,  100.0,   169.500,    50.850,   1,1.0000,0,1,0,1,0,1,0,0
  3020,'1 ',   112.500,     4.247,    31.950,   -21.600,1.030000,     0,   180.000,   0.00000,   0.20000,   0.00000,   0.00000,   1.00000,1,  100.0,   150.000,    45.000,   1,1.0000,0,1,0,1,0,1,0,0
  3028,'1 ',   150.000,    39.060,    42.600,   -28.800,1.040000,     0,   240.000,   0.00000,   0.20000,   0.00000,   0.00000,   1.00000,1,  100.0,   200.000,    60.000,   1,1.0000,0,1,0,1,0,1,0,0
  3034,'1 ',    97.870,    16.903,    27.800,   -18.790,1.030000,     0,   156.600,   0.00000,   0.20000,   0.00000,   0.00000,   1.00000,1,  100.0,   130.500,    39.150,   1,1.0000,0,1,0,1,0,1,0,0
  3039,'1 ',   156.750,    42.982,    44.520,   -30.100,1.040000,     0,   250.800,   0.00000,   0.20000,   0.00000,   0.00000,   1.00000,1,  100.0,   209.000,    62.700,   1,1.0000,0,1,0,1,0,1,0,0
  3043,'1 ',     0.000,     0.000,     0.660,    -0.140,1.040000,     0,     1.560,   0.00000,   0.20000,   0.00000,   0.00000,   1.00000,0,  100.0,     1.300,     0.390,   1,1.0000,0,1,0,1,0,1,0,0
  3044,'1 ',     0.000,     0.000,    45.500,    -9.920,1.040000,     0,   107.280,   0.00000,   0.20000,   0.00000,   0.00000,   1.00000,0,  100.0,    89.400,    26.820,   1,1.0000,0,1,0,1,0,1,0,0
  3045,'1 ',     0.000,     0.000,   227.520,   -49.620,1.040000,     0,   536.400,   0.00000,   0.20000,   0.00000,   0.00000,   1.00000,0,  100.0,   447.000,   134.100,   1,1.0000,0,1,0,1,0,1,0,0
  3048,'1 ',   180.750,    51.330,    51.330,   -34.700,1.040000,     0,   289.200,   0.00000,   0.20000,   0.00000,   0.00000,   1.00000,1,  100.0,   241.000,    72.300,   1,1.0000,0,1,0,1,0,1,0,0
  3055,'1 ',   183.880,    37.069,    52.220,   -35.300,1.040000,     0,   294.200,   0.00000,   0.20000,   0.00000,   0.00000,   1.00000,1,  100.0,   245.170,    73.550,   1,1.0000,0,1,0,1,0,1,0,0
  3056,'1 ',   183.880,    24.818,    52.220,   -35.300,1.040000,     0,   294.200,   0.00000,   0.20000,   0.00000,   0.00000,   1.00000,1,  100.0,   245.170,    73.550,   1,1.0000,0,1,0,1,0,1,0,0
  3057,'1 ',   183.880,    23.218,    52.220,   -35.300,1.040000,     0,   294.200,   0.00000,   0.20000,   0.00000,   0.00000,   1.00000,1,  100.0,   245.170,    73.550,   1,1.0000,0,1,0,1,0,1,0,0
  3060,'1 ',   124.220,    13.602,    35.280,   -23.850,1.040000,     0,   198.750,   0.00000,   0.20000,   0.00000,   0.00000,   1.00000,1,  100.0,   165.630,    49.690,   1,1.0000,0,1,0,1,0,1,0,0
  3061,'1 ',   124.220,    14.522,    35.280,   -23.850,1.040000,     0,   198.750,   0.00000,   0.20000,   0.00000,   0.00000,   1.00000,1,  100.0,   165.630,    49.690,   1,1.0000,0,1,0,1,0,1,0,0
  3062,'1 ',   124.220,    20.620,    35.280,   -23.850,1.040000,     0,   198.750,   0.00000,   0.20000,   0.00000,   0.00000,   1.00000,1,  100.0,   165.630,    49.690,   1,1.0000,0,1,0,1,0,1,0,0
  3063,'1 ',   124.220,    15.685,    35.280,   -23.850,1.040000,     0,   198.750,   0.00000,   0.20000,   0.00000,   0.00000,   1.00000,1,  100.0,   165.630,    49.690,   1,1.0000,0,1,0,1,0,1,0,0
  3065,'1 ',    60.370,   -11.590,    17.150,   -11.590,1.000000,     0,    96.600,   0.00000,   0.20000,   0.00000,   0.00000,   1.00000,1,  100.0,    80.500,    24.150,   1,1.0000,0,1,0,1,0,1,0,0
  3068,'1 ',   112.500,    25.498,    31.950,   -21.600,1.040000,     0,   180.000,   0.00000,   0.20000,   0.00000,   0.00000,   1.00000,1,  100.0,   150.000,    45.000,   1,1.0000,0,1,0,1,0,1,0,0
  3071,'1 ',   127.650,   -24.510,    36.250,   -24.510,1.000000,     0,   204.240,   0.00000,   0.20000,   0.00000,   0.00000,   1.00000,1,  100.0,   170.200,    51.060,   1,1.0000,0,1,0,1,0,1,0,0
  3074,'1 ',    74.850,    -5.381,    21.260,   -14.370,1.000000,     0,   119.760,   0.00000,   0.20000,   0.00000,   0.00000,   1.00000,1,  100.0,    99.800,    29.940,   1,1.0000,0,1,0,1,0,1,0,0
  3081,'1 ',   186.750,    33.580,    53.040,   -35.860,1.040000,     0,   298.800,   0.00000,   0.20000,   0.00000,   0.00000,   1.00000,1,  100.0,   249.000,    74.700,   1,1.0000,0,1,0,1,0,1,0,0
  3084,'1 ',   174.370,    -8.593,    49.520,   -33.480,1.000000,     0,   279.000,   0.00000,   0.20000,   0.00000,   0.00000,   1.00000,1,  100.0,   232.500,    69.750,   1,1.0000,0,1,0,1,0,1,0,0
  3086,'1 ',    56.250,    -1.892,    15.970,   -10.800,1.000000,     0,    90.000,   0.00000,   0.20000,   0.00000,   0.00000,   1.00000,1,  100.0,    75.000,    22.500,   1,1.0000,0,1,0,1,0,1,0,0
  3087,'1 ',     0.000,     0.000,    15.970,   -10.800,1.000000,     0,    90.000,   0.00000,   0.20000,   0.00000,   0.00000,   1.00000,0,  100.0,    75.000,    22.500,   1,1.0000,0,1,0,1,0,1,0,0
  3092,'1 ',   150.000,    19.304,    42.600,   -28.800,1.040000,     0,   240.000,   0.00000,   0.20000,   0.00000,   0.00000,   1.00000,1,  100.0,   200.000,    60.000,   1,1.0000,0,1,0,1,0,1,0,0
  3095,'1 ',    90.450,    19.967,    25.690,   -17.370,1.040000,     0,   144.720,   0.00000,   0.20000,   0.00000,   0.00000,   1.00000,1,  100.0,   120.600,    36.180,   1,1.0000,0,1,0,1,0,1,0,0
  3098,'1 ',   120.000,    17.899,    34.080,   -23.040,1.040000,     0,   192.000,   0.00000,   0.20000,   0.00000,   0.00000,   1.00000,1,  100.0,   160.000,    48.000,   1,1.0000,0,1,0,1,0,1,0,0
  3105,'1 ',    44.500,    -0.740,    17.071,    -0.740,1.000000,     0,    18.000,   0.00000,   0.20000,   0.00000,   0.00000,   1.00000,1,  100.0,    44.500,     0.000,   1,1.0000,0,1,0,1,0,1,0,0
...